  
       XFOIL         Version 6.99
  
 Calculated polar for: NACA 0009                                       
  
 1 1 Reynolds number fixed          Mach number fixed         
  
 xtrf =   1.000 (top)        1.000 (bottom)  
 Mach =   0.000     Re =     5.000 e 6     Ncrit =   9.000
  
   alpha    CL        CD       CDp       CM     Top_Xtr  Bot_Xtr
  ------ -------- --------- --------- -------- -------- --------
 -10.000  -1.1026   0.01049   0.00608  -0.0013   1.0000   0.0067
  -9.750  -1.0767   0.01022   0.00580  -0.0010   1.0000   0.0069
  -9.500  -1.0507   0.00996   0.00553  -0.0007   1.0000   0.0070
  -9.250  -1.0247   0.00973   0.00529  -0.0005   1.0000   0.0072
  -9.000  -0.9986   0.00950   0.00506  -0.0002   1.0000   0.0072
  -8.750  -0.9730   0.00923   0.00476   0.0002   1.0000   0.0075
  -8.500  -0.9477   0.00892   0.00445   0.0006   1.0000   0.0083
  -8.250  -0.9224   0.00868   0.00421   0.0011   1.0000   0.0089
  -8.000  -0.8973   0.00846   0.00400   0.0016   1.0000   0.0093
  -7.750  -0.8723   0.00827   0.00381   0.0022   1.0000   0.0097
  -7.500  -0.8475   0.00811   0.00364   0.0028   1.0000   0.0099
  -7.250  -0.8207   0.00788   0.00341   0.0030   0.9998   0.0108
  -7.000  -0.7897   0.00764   0.00319   0.0022   0.9990   0.0120
  -6.750  -0.7584   0.00745   0.00301   0.0013   0.9981   0.0128
  -6.500  -0.7268   0.00729   0.00286   0.0004   0.9970   0.0131
  -6.250  -0.6952   0.00707   0.00265  -0.0004   0.9959   0.0152
  -6.000  -0.6632   0.00688   0.00249  -0.0014   0.9946   0.0167
  -5.750  -0.6336   0.00673   0.00234  -0.0018   0.9914   0.0179
  -5.500  -0.6038   0.00654   0.00219  -0.0023   0.9868   0.0210
  -5.250  -0.5743   0.00640   0.00206  -0.0026   0.9815   0.0226
  -5.000  -0.5474   0.00624   0.00192  -0.0024   0.9725   0.0267
  -4.750  -0.5205   0.00612   0.00180  -0.0021   0.9623   0.0294
  -4.500  -0.4942   0.00598   0.00167  -0.0016   0.9496   0.0353
  -4.250  -0.4676   0.00586   0.00155  -0.0013   0.9353   0.0418
  -4.000  -0.4407   0.00576   0.00144  -0.0010   0.9186   0.0480
  -3.750  -0.4138   0.00566   0.00133  -0.0008   0.8991   0.0578
  -3.500  -0.3866   0.00556   0.00122  -0.0006   0.8782   0.0698
  -3.250  -0.3593   0.00547   0.00112  -0.0004   0.8540   0.0845
  -3.000  -0.3320   0.00535   0.00102  -0.0003   0.8299   0.1057
  -2.750  -0.3045   0.00526   0.00093  -0.0002   0.8033   0.1264
  -2.500  -0.2770   0.00517   0.00085  -0.0001   0.7757   0.1508
  -2.250  -0.2495   0.00508   0.00078  -0.0000   0.7465   0.1783
  -2.000  -0.2219   0.00500   0.00071   0.0000   0.7167   0.2080
  -1.750  -0.1942   0.00492   0.00065   0.0000   0.6874   0.2385
  -1.500  -0.1666   0.00485   0.00060   0.0000   0.6567   0.2718
  -1.250  -0.1389   0.00478   0.00056   0.0001   0.6258   0.3056
  -1.000  -0.1112   0.00474   0.00052   0.0000   0.5948   0.3373
  -0.750  -0.0834   0.00470   0.00050   0.0000   0.5641   0.3701
  -0.500  -0.0556   0.00467   0.00048   0.0000   0.5327   0.4039
  -0.250  -0.0277   0.00465   0.00047   0.0000   0.5018   0.4364
   0.000   0.0001   0.00465   0.00047  -0.0000   0.4678   0.4676
   0.250   0.0279   0.00465   0.00047  -0.0000   0.4362   0.5021
   0.500   0.0557   0.00468   0.00048  -0.0000   0.4027   0.5328
   0.750   0.0835   0.00470   0.00050  -0.0001   0.3698   0.5646
   1.000   0.1113   0.00474   0.00052  -0.0001   0.3376   0.5954
   1.250   0.1390   0.00479   0.00056  -0.0001   0.3035   0.6262
   1.500   0.1667   0.00486   0.00060  -0.0001   0.2691   0.6567
   1.750   0.1944   0.00491   0.00065  -0.0001   0.2410   0.6868
   2.250   0.2496   0.00508   0.00078   0.0000   0.1776   0.7470
   2.500   0.2771   0.00517   0.00085   0.0001   0.1506   0.7752
   2.750   0.3046   0.00527   0.00093   0.0002   0.1248   0.8033
   3.000   0.3321   0.00535   0.00102   0.0002   0.1058   0.8296
   3.250   0.3594   0.00546   0.00112   0.0004   0.0859   0.8545
   3.500   0.3867   0.00556   0.00122   0.0005   0.0696   0.8781
   3.750   0.4139   0.00566   0.00133   0.0007   0.0567   0.8991
   4.000   0.4408   0.00577   0.00144   0.0010   0.0480   0.9185
   4.250   0.4678   0.00586   0.00155   0.0013   0.0417   0.9352
   4.500   0.4944   0.00598   0.00167   0.0016   0.0354   0.9496
   4.750   0.5207   0.00612   0.00180   0.0020   0.0298   0.9622
   5.000   0.5475   0.00624   0.00192   0.0023   0.0267   0.9724
   5.250   0.5745   0.00641   0.00206   0.0026   0.0225   0.9815
   5.500   0.6040   0.00654   0.00219   0.0022   0.0210   0.9869
   5.750   0.6337   0.00673   0.00234   0.0018   0.0178   0.9914
   6.000   0.6633   0.00688   0.00249   0.0014   0.0166   0.9947
   6.250   0.6954   0.00707   0.00265   0.0004   0.0152   0.9960
   6.500   0.7270   0.00729   0.00286  -0.0005   0.0131   0.9970
   6.750   0.7586   0.00745   0.00301  -0.0014   0.0127   0.9981
   7.000   0.7898   0.00764   0.00319  -0.0022   0.0120   0.9991
   7.250   0.8209   0.00788   0.00341  -0.0030   0.0108   0.9998
   7.500   0.8474   0.00811   0.00364  -0.0028   0.0099   1.0000
   7.750   0.8722   0.00827   0.00381  -0.0022   0.0097   1.0000
   8.000   0.8973   0.00847   0.00400  -0.0016   0.0093   1.0000
   8.250   0.9224   0.00868   0.00421  -0.0011   0.0089   1.0000
   8.500   0.9477   0.00893   0.00445  -0.0006   0.0083   1.0000
   8.750   0.9730   0.00922   0.00476  -0.0002   0.0076   1.0000
   9.000   0.9987   0.00950   0.00506   0.0002   0.0072   1.0000
   9.250   1.0248   0.00973   0.00529   0.0005   0.0072   1.0000
   9.500   1.0508   0.00996   0.00554   0.0007   0.0070   1.0000
   9.750   1.0768   0.01022   0.00580   0.0010   0.0069   1.0000
  10.000   1.1027   0.01049   0.00608   0.0012   0.0067   1.0000
  10.250   1.1284   0.01078   0.00637   0.0015   0.0064   1.0000
  10.500   1.1539   0.01110   0.00670   0.0018   0.0062   1.0000
  10.750   1.1791   0.01147   0.00708   0.0021   0.0058   1.0000
  11.000   1.2034   0.01196   0.00762   0.0026   0.0053   1.0000
  11.250   1.2281   0.01237   0.00806   0.0030   0.0051   1.0000
  11.500   1.2533   0.01268   0.00839   0.0033   0.0051   1.0000
  11.750   1.2783   0.01302   0.00875   0.0036   0.0050   1.0000
  12.000   1.3030   0.01338   0.00913   0.0039   0.0050   1.0000
  12.250   1.3274   0.01376   0.00953   0.0043   0.0049   1.0000
  12.500   1.3516   0.01416   0.00996   0.0047   0.0048   1.0000
  12.750   1.3756   0.01456   0.01039   0.0051   0.0048   1.0000
  13.000   1.3992   0.01500   0.01086   0.0056   0.0047   1.0000
  13.250   1.4225   0.01545   0.01133   0.0060   0.0046   1.0000
  13.500   1.4455   0.01593   0.01184   0.0066   0.0045   1.0000
  13.750   1.4680   0.01642   0.01237   0.0071   0.0044   1.0000
  14.000   1.4901   0.01695   0.01293   0.0077   0.0043   1.0000
  14.250   1.5115   0.01752   0.01353   0.0084   0.0042   1.0000
  14.500   1.5323   0.01813   0.01418   0.0091   0.0041   1.0000
  14.750   1.5520   0.01883   0.01492   0.0100   0.0039   1.0000
  15.000   1.5702   0.01964   0.01580   0.0110   0.0037   1.0000
