  
       XFOIL         Version 6.99
  
 Calculated polar for: SM701                                           
  
 1 1 Reynolds number fixed          Mach number fixed         
  
 xtrf =   1.000 (top)        1.000 (bottom)  
 Mach =   0.000     Re =     5.000 e 6     Ncrit =   9.000
  
   alpha    CL        CD       CDp       CM     Top_Xtr  Bot_Xtr
  ------ -------- --------- --------- -------- -------- --------
 -10.000  -0.5673   0.01002   0.00563  -0.1176   0.8205   0.0103
  -9.750  -0.5422   0.00958   0.00512  -0.1175   0.8106   0.0106
  -9.500  -0.5142   0.00943   0.00495  -0.1178   0.8026   0.0107
  -9.250  -0.4885   0.00915   0.00464  -0.1176   0.7948   0.0112
  -9.000  -0.4607   0.00905   0.00453  -0.1177   0.7876   0.0114
  -8.750  -0.4334   0.00880   0.00425  -0.1179   0.7814   0.0114
  -8.500  -0.4054   0.00870   0.00414  -0.1180   0.7744   0.0116
  -8.250  -0.3771   0.00854   0.00396  -0.1183   0.7691   0.0119
  -7.750  -0.3205   0.00821   0.00360  -0.1188   0.7585   0.0120
  -7.250  -0.2636   0.00795   0.00331  -0.1193   0.7479   0.0123
  -7.000  -0.2352   0.00774   0.00307  -0.1196   0.7429   0.0126
  -6.750  -0.2066   0.00757   0.00288  -0.1198   0.7373   0.0131
  -6.500  -0.1779   0.00745   0.00275  -0.1201   0.7307   0.0135
  -6.250  -0.1489   0.00735   0.00264  -0.1204   0.7246   0.0138
  -6.000  -0.1201   0.00723   0.00250  -0.1207   0.7183   0.0139
  -5.750  -0.0911   0.00713   0.00239  -0.1210   0.7121   0.0143
  -5.250  -0.0331   0.00692   0.00215  -0.1217   0.7004   0.0148
  -5.000  -0.0040   0.00680   0.00201  -0.1220   0.6965   0.0153
  -4.750   0.0250   0.00671   0.00192  -0.1223   0.6899   0.0159
  -4.500   0.0544   0.00662   0.00182  -0.1227   0.6863   0.0162
  -4.000   0.1131   0.00646   0.00165  -0.1234   0.6776   0.0173
  -3.750   0.1425   0.00637   0.00156  -0.1238   0.6732   0.0188
  -3.500   0.1718   0.00632   0.00150  -0.1241   0.6681   0.0194
  -3.250   0.2012   0.00622   0.00141  -0.1245   0.6620   0.0245
  -3.000   0.2308   0.00599   0.00129  -0.1250   0.6573   0.0596
  -2.750   0.2605   0.00580   0.00121  -0.1256   0.6531   0.0914
  -2.500   0.2901   0.00562   0.00113  -0.1261   0.6477   0.1322
  -2.250   0.3199   0.00546   0.00107  -0.1267   0.6408   0.1726
  -2.000   0.3496   0.00521   0.00099  -0.1273   0.6325   0.2415
  -1.750   0.3796   0.00495   0.00092  -0.1281   0.6239   0.3204
  -1.500   0.4099   0.00463   0.00084  -0.1290   0.6140   0.4195
  -1.250   0.4392   0.00452   0.00083  -0.1295   0.5999   0.4746
  -1.000   0.4678   0.00455   0.00085  -0.1297   0.5812   0.4999
  -0.750   0.4956   0.00468   0.00090  -0.1298   0.5552   0.5085
  -0.500   0.5226   0.00484   0.00097  -0.1297   0.5246   0.5220
  -0.250   0.5503   0.00499   0.00103  -0.1297   0.5006   0.5287
   0.000   0.5779   0.00514   0.00111  -0.1297   0.4759   0.5399
   0.250   0.6051   0.00531   0.00119  -0.1297   0.4509   0.5499
   0.500   0.6329   0.00544   0.00126  -0.1297   0.4316   0.5573
   0.750   0.6597   0.00564   0.00135  -0.1296   0.4051   0.5613
   1.000   0.6874   0.00578   0.00143  -0.1296   0.3865   0.5664
   1.250   0.7149   0.00595   0.00151  -0.1296   0.3685   0.5688
   1.500   0.7429   0.00608   0.00158  -0.1297   0.3545   0.5706
   1.750   0.7699   0.00624   0.00167  -0.1297   0.3368   0.5734
   2.000   0.7975   0.00639   0.00176  -0.1297   0.3225   0.5762
   2.250   0.8254   0.00652   0.00184  -0.1298   0.3097   0.5790
   2.500   0.8530   0.00666   0.00193  -0.1298   0.2983   0.5812
   3.000   0.9075   0.00694   0.00212  -0.1298   0.2754   0.5865
   3.500   0.9622   0.00722   0.00232  -0.1298   0.2560   0.5924
   3.750   0.9894   0.00736   0.00242  -0.1298   0.2472   0.5947
   4.000   1.0167   0.00749   0.00252  -0.1298   0.2396   0.5984
   4.250   1.0433   0.00764   0.00264  -0.1296   0.2306   0.6015
   5.000   1.1238   0.00809   0.00300  -0.1294   0.2080   0.6114
   5.250   1.1502   0.00826   0.00314  -0.1293   0.2004   0.6150
   5.500   1.1766   0.00841   0.00327  -0.1291   0.1940   0.6183
   5.750   1.2027   0.00858   0.00341  -0.1290   0.1871   0.6221
   6.000   1.2288   0.00873   0.00355  -0.1288   0.1819   0.6261
   6.250   1.2547   0.00890   0.00370  -0.1286   0.1760   0.6302
   6.500   1.2802   0.00909   0.00386  -0.1283   0.1699   0.6344
   6.750   1.3054   0.00925   0.00402  -0.1279   0.1644   0.6388
   7.000   1.3300   0.00946   0.00420  -0.1275   0.1584   0.6428
   7.250   1.3549   0.00964   0.00437  -0.1271   0.1526   0.6479
   7.500   1.3802   0.00980   0.00453  -0.1268   0.1504   0.6530
   8.000   1.4285   0.01018   0.00490  -0.1257   0.1416   0.6627
   8.250   1.4499   0.01040   0.00510  -0.1247   0.1359   0.6673
   8.500   1.4722   0.01060   0.00530  -0.1238   0.1319   0.6731
   8.750   1.4911   0.01094   0.00559  -0.1223   0.1223   0.6785
   9.000   1.5122   0.01122   0.00585  -0.1213   0.1165   0.6843
   9.250   1.5348   0.01143   0.00607  -0.1205   0.1146   0.6907
   9.500   1.5536   0.01179   0.00640  -0.1191   0.1067   0.6970
   9.750   1.5755   0.01203   0.00665  -0.1183   0.1049   0.7036
  10.000   1.5928   0.01245   0.00704  -0.1167   0.0965   0.7106
  10.500   1.6322   0.01310   0.00770  -0.1143   0.0894   0.7248
  10.750   1.6491   0.01357   0.00814  -0.1127   0.0825   0.7323
  11.000   1.6687   0.01392   0.00850  -0.1116   0.0800   0.7399
  11.250   1.6851   0.01443   0.00899  -0.1100   0.0740   0.7489
  11.500   1.7015   0.01492   0.00948  -0.1084   0.0697   0.7579
  11.750   1.7140   0.01562   0.01015  -0.1063   0.0610   0.7675
  12.250   1.7428   0.01687   0.01138  -0.1028   0.0513   0.7873
  12.500   1.7582   0.01752   0.01204  -0.1013   0.0472   0.7995
  12.750   1.7703   0.01831   0.01283  -0.0994   0.0421   0.8109
  13.000   1.7828   0.01913   0.01366  -0.0977   0.0378   0.8257
  13.250   1.7913   0.02018   0.01471  -0.0954   0.0315   0.8412
  13.500   1.8045   0.02101   0.01557  -0.0939   0.0290   0.8588
  13.750   1.8090   0.02237   0.01695  -0.0914   0.0220   0.8832
  14.000   1.8224   0.02313   0.01781  -0.0900   0.0213   0.9280
  14.250   1.8257   0.02430   0.01907  -0.0873   0.0177   1.0000
  14.500   1.8333   0.02562   0.02039  -0.0855   0.0147   1.0000
  14.750   1.8337   0.02751   0.02227  -0.0831   0.0094   1.0000
  15.000   1.8394   0.02909   0.02386  -0.0814   0.0071   1.0000
  15.250   1.8393   0.03120   0.02599  -0.0794   0.0040   1.0000
  15.500   1.8469   0.03272   0.02754  -0.0781   0.0035   1.0000
  15.750   1.8558   0.03417   0.02902  -0.0770   0.0034   1.0000
  16.000   1.8612   0.03599   0.03088  -0.0758   0.0029   1.0000
  16.250   1.8677   0.03770   0.03263  -0.0747   0.0027   1.0000
  16.500   1.8727   0.03963   0.03460  -0.0737   0.0025   1.0000
  16.750   1.8790   0.04146   0.03646  -0.0728   0.0025   1.0000
  17.000   1.8824   0.04368   0.03873  -0.0720   0.0022   1.0000
  17.250   1.8874   0.04577   0.04086  -0.0713   0.0022   1.0000
  17.500   1.8913   0.04801   0.04315  -0.0707   0.0022   1.0000
  17.750   1.8941   0.05041   0.04560  -0.0701   0.0021   1.0000
  18.000   1.8963   0.05295   0.04819  -0.0697   0.0020   1.0000
