  
       XFOIL         Version 6.99
  
 Calculated polar for: SM701                                           
  
 1 1 Reynolds number fixed          Mach number fixed         
  
 xtrf =   1.000 (top)        1.000 (bottom)  
 Mach =   0.000     Re =     4.000 e 6     Ncrit =   9.000
  
   alpha    CL        CD       CDp       CM     Top_Xtr  Bot_Xtr
  ------ -------- --------- --------- -------- -------- --------
 -10.000  -0.5640   0.01040   0.00595  -0.1179   0.8408   0.0110
  -9.750  -0.5384   0.01013   0.00563  -0.1177   0.8298   0.0111
  -9.500  -0.5108   0.01004   0.00551  -0.1179   0.8200   0.0112
  -9.000  -0.4577   0.00967   0.00509  -0.1178   0.8028   0.0118
  -8.750  -0.4312   0.00939   0.00476  -0.1178   0.7955   0.0117
  -8.500  -0.4031   0.00930   0.00466  -0.1180   0.7883   0.0120
  -8.250  -0.3752   0.00914   0.00447  -0.1182   0.7821   0.0122
  -8.000  -0.3477   0.00891   0.00421  -0.1183   0.7755   0.0122
  -7.750  -0.3193   0.00878   0.00407  -0.1186   0.7703   0.0123
  -7.500  -0.2921   0.00844   0.00369  -0.1188   0.7642   0.0130
  -7.250  -0.2637   0.00827   0.00349  -0.1190   0.7594   0.0130
  -7.000  -0.2350   0.00811   0.00333  -0.1193   0.7542   0.0133
  -6.750  -0.2065   0.00797   0.00317  -0.1196   0.7492   0.0137
  -6.500  -0.1778   0.00784   0.00303  -0.1199   0.7440   0.0140
  -6.250  -0.1491   0.00774   0.00291  -0.1201   0.7381   0.0143
  -6.000  -0.1204   0.00761   0.00276  -0.1204   0.7318   0.0144
  -5.750  -0.0918   0.00747   0.00260  -0.1207   0.7258   0.0148
  -5.500  -0.0633   0.00734   0.00244  -0.1209   0.7182   0.0149
  -5.250  -0.0344   0.00720   0.00229  -0.1212   0.7129   0.0158
  -5.000  -0.0053   0.00709   0.00217  -0.1216   0.7085   0.0161
  -4.750   0.0236   0.00701   0.00207  -0.1218   0.7024   0.0166
  -4.500   0.0529   0.00691   0.00197  -0.1222   0.6981   0.0169
  -4.250   0.0819   0.00682   0.00186  -0.1225   0.6936   0.0176
  -4.000   0.1113   0.00671   0.00175  -0.1229   0.6887   0.0187
  -3.500   0.1699   0.00656   0.00159  -0.1236   0.6794   0.0213
  -3.250   0.1992   0.00634   0.00146  -0.1240   0.6732   0.0448
  -3.000   0.2287   0.00614   0.00135  -0.1246   0.6686   0.0780
  -2.750   0.2584   0.00593   0.00126  -0.1251   0.6646   0.1160
  -2.500   0.2881   0.00570   0.00118  -0.1258   0.6598   0.1667
  -2.250   0.3181   0.00547   0.00110  -0.1264   0.6552   0.2227
  -2.000   0.3481   0.00510   0.00099  -0.1273   0.6471   0.3236
  -1.750   0.3790   0.00469   0.00089  -0.1284   0.6416   0.4353
  -1.500   0.4086   0.00459   0.00087  -0.1289   0.6339   0.4783
  -1.250   0.4380   0.00456   0.00088  -0.1292   0.6244   0.5045
  -1.000   0.4672   0.00459   0.00089  -0.1295   0.6140   0.5148
  -0.750   0.4961   0.00466   0.00091  -0.1298   0.5999   0.5238
  -0.500   0.5240   0.00475   0.00095  -0.1298   0.5786   0.5345
  -0.250   0.5514   0.00490   0.00101  -0.1298   0.5516   0.5431
   0.000   0.5787   0.00507   0.00109  -0.1297   0.5239   0.5515
   0.250   0.6057   0.00526   0.00117  -0.1296   0.4977   0.5615
   0.500   0.6328   0.00543   0.00125  -0.1296   0.4736   0.5668
   0.750   0.6592   0.00566   0.00136  -0.1294   0.4418   0.5697
   1.000   0.6864   0.00584   0.00144  -0.1293   0.4204   0.5726
   1.250   0.7139   0.00599   0.00152  -0.1293   0.4021   0.5756
   1.500   0.7414   0.00615   0.00161  -0.1293   0.3831   0.5783
   1.750   0.7682   0.00632   0.00170  -0.1292   0.3654   0.5805
   2.000   0.7954   0.00650   0.00179  -0.1292   0.3475   0.5825
   2.250   0.8228   0.00666   0.00189  -0.1292   0.3320   0.5853
   2.500   0.8502   0.00681   0.00198  -0.1292   0.3179   0.5882
   2.750   0.8776   0.00694   0.00208  -0.1292   0.3066   0.5912
   3.000   0.9044   0.00710   0.00218  -0.1291   0.2944   0.5937
   3.250   0.9318   0.00725   0.00228  -0.1291   0.2830   0.5964
   3.500   0.9587   0.00740   0.00239  -0.1290   0.2727   0.5998
   3.750   0.9856   0.00755   0.00250  -0.1289   0.2625   0.6030
   4.000   1.0125   0.00771   0.00262  -0.1289   0.2535   0.6060
   4.250   1.0388   0.00787   0.00274  -0.1287   0.2431   0.6089
   4.500   1.0657   0.00803   0.00287  -0.1286   0.2345   0.6127
   4.750   1.0923   0.00817   0.00299  -0.1285   0.2273   0.6162
   5.000   1.1186   0.00834   0.00312  -0.1284   0.2193   0.6190
   5.250   1.1453   0.00850   0.00326  -0.1283   0.2122   0.6231
   5.500   1.1714   0.00866   0.00340  -0.1281   0.2053   0.6274
   5.750   1.1971   0.00885   0.00356  -0.1278   0.1972   0.6309
   6.000   1.2227   0.00902   0.00371  -0.1275   0.1909   0.6351
   6.250   1.2488   0.00918   0.00386  -0.1274   0.1859   0.6397
   6.500   1.2738   0.00938   0.00403  -0.1270   0.1794   0.6434
   6.750   1.2988   0.00954   0.00419  -0.1266   0.1738   0.6483
   7.000   1.3233   0.00976   0.00438  -0.1261   0.1675   0.6532
   7.250   1.3475   0.00997   0.00457  -0.1256   0.1609   0.6580
   7.500   1.3725   0.01013   0.00474  -0.1253   0.1583   0.6633
   7.750   1.3954   0.01034   0.00494  -0.1245   0.1522   0.6678
   8.000   1.4173   0.01055   0.00514  -0.1235   0.1479   0.6734
   8.250   1.4400   0.01073   0.00532  -0.1227   0.1444   0.6788
   8.500   1.4616   0.01100   0.00557  -0.1218   0.1387   0.6846
   8.750   1.4809   0.01133   0.00587  -0.1204   0.1296   0.6906
   9.000   1.5028   0.01157   0.00611  -0.1195   0.1254   0.6969
   9.250   1.5248   0.01182   0.00636  -0.1187   0.1226   0.7036
   9.500   1.5443   0.01215   0.00669  -0.1174   0.1160   0.7105
  10.000   1.5835   0.01282   0.00734  -0.1150   0.1059   0.7248
  10.250   1.6025   0.01322   0.00772  -0.1137   0.1006   0.7319
  10.500   1.6220   0.01354   0.00806  -0.1125   0.0973   0.7397
  10.750   1.6393   0.01400   0.00851  -0.1110   0.0913   0.7489
  11.000   1.6583   0.01439   0.00891  -0.1099   0.0876   0.7569
  11.250   1.6752   0.01488   0.00939  -0.1084   0.0823   0.7664
  11.500   1.6924   0.01534   0.00986  -0.1069   0.0788   0.7763
  11.750   1.7061   0.01600   0.01050  -0.1051   0.0712   0.7873
  12.000   1.7248   0.01641   0.01095  -0.1039   0.0704   0.7978
  12.250   1.7352   0.01724   0.01174  -0.1017   0.0618   0.8091
  12.750   1.7629   0.01870   0.01322  -0.0984   0.0519   0.8376
  13.000   1.7763   0.01948   0.01402  -0.0968   0.0479   0.8554
  13.250   1.7856   0.02048   0.01504  -0.0947   0.0416   0.8771
  13.500   1.7971   0.02138   0.01600  -0.0930   0.0379   0.9100
  13.750   1.7978   0.02256   0.01727  -0.0896   0.0310   1.0000
  14.000   1.8109   0.02346   0.01818  -0.0883   0.0297   1.0000
  14.250   1.8182   0.02477   0.01948  -0.0864   0.0252   1.0000
  14.500   1.8250   0.02618   0.02088  -0.0846   0.0214   1.0000
  14.750   1.8289   0.02783   0.02253  -0.0826   0.0171   1.0000
  15.000   1.8354   0.02934   0.02405  -0.0810   0.0144   1.0000
  15.250   1.8354   0.03146   0.02616  -0.0790   0.0098   1.0000
  15.500   1.8359   0.03359   0.02831  -0.0772   0.0066   1.0000
  15.750   1.8420   0.03530   0.03004  -0.0760   0.0057   1.0000
  16.250   1.8462   0.03965   0.03447  -0.0734   0.0034   1.0000
  16.500   1.8491   0.04180   0.03667  -0.0723   0.0030   1.0000
  16.750   1.8545   0.04377   0.03868  -0.0715   0.0029   1.0000
  17.000   1.8590   0.04592   0.04088  -0.0708   0.0028   1.0000
  17.250   1.8623   0.04825   0.04326  -0.0702   0.0026   1.0000
  17.500   1.8648   0.05072   0.04578  -0.0696   0.0026   1.0000
  17.750   1.8655   0.05343   0.04855  -0.0691   0.0024   1.0000
  18.000   1.8656   0.05629   0.05147  -0.0688   0.0023   1.0000
