  
       XFOIL         Version 6.99
  
 Calculated polar for: SM701                                           
  
 1 1 Reynolds number fixed          Mach number fixed         
  
 xtrf =   1.000 (top)        1.000 (bottom)  
 Mach =   0.000     Re =     2.000 e 6     Ncrit =   9.000
  
   alpha    CL        CD       CDp       CM     Top_Xtr  Bot_Xtr
  ------ -------- --------- --------- -------- -------- --------
 -10.000  -0.5363   0.01348   0.00899  -0.1203   0.9243   0.0128
  -9.750  -0.5138   0.01291   0.00834  -0.1199   0.9110   0.0128
  -9.500  -0.4854   0.01283   0.00824  -0.1203   0.8967   0.0132
  -9.250  -0.4640   0.01234   0.00763  -0.1195   0.8783   0.0134
  -9.000  -0.4393   0.01205   0.00727  -0.1193   0.8638   0.0137
  -8.750  -0.4158   0.01167   0.00681  -0.1189   0.8507   0.0136
  -8.500  -0.3889   0.01154   0.00663  -0.1189   0.8402   0.0140
  -8.250  -0.3624   0.01135   0.00637  -0.1189   0.8305   0.0144
  -8.000  -0.3371   0.01100   0.00596  -0.1188   0.8212   0.0144
  -7.750  -0.3098   0.01084   0.00576  -0.1189   0.8131   0.0145
  -7.500  -0.2859   0.01019   0.00505  -0.1188   0.8056   0.0152
  -7.000  -0.2316   0.00973   0.00454  -0.1190   0.7922   0.0157
  -6.750  -0.2048   0.00952   0.00428  -0.1190   0.7861   0.0161
  -6.500  -0.1770   0.00932   0.00406  -0.1191   0.7804   0.0165
  -6.000  -0.1209   0.00898   0.00366  -0.1195   0.7698   0.0170
  -5.750  -0.0934   0.00866   0.00331  -0.1197   0.7648   0.0179
  -5.500  -0.0651   0.00849   0.00312  -0.1199   0.7597   0.0181
  -5.250  -0.0369   0.00834   0.00295  -0.1201   0.7535   0.0189
  -5.000  -0.0085   0.00820   0.00279  -0.1204   0.7473   0.0193
  -4.750   0.0200   0.00806   0.00261  -0.1206   0.7416   0.0200
  -4.500   0.0487   0.00791   0.00245  -0.1209   0.7359   0.0209
  -4.250   0.0771   0.00780   0.00231  -0.1211   0.7293   0.0220
  -4.000   0.1062   0.00765   0.00217  -0.1214   0.7250   0.0241
  -3.750   0.1351   0.00747   0.00201  -0.1218   0.7196   0.0335
  -3.500   0.1638   0.00720   0.00186  -0.1222   0.7145   0.0687
  -3.250   0.1933   0.00689   0.00172  -0.1228   0.7105   0.1156
  -3.000   0.2225   0.00659   0.00159  -0.1234   0.7053   0.1743
  -2.750   0.2523   0.00612   0.00143  -0.1243   0.7008   0.2698
  -2.500   0.2828   0.00553   0.00124  -0.1255   0.6961   0.4044
  -2.250   0.3127   0.00526   0.00119  -0.1262   0.6917   0.4878
  -2.000   0.3424   0.00521   0.00118  -0.1267   0.6865   0.5121
  -1.750   0.3717   0.00522   0.00118  -0.1270   0.6812   0.5241
  -1.500   0.4015   0.00521   0.00118  -0.1274   0.6765   0.5349
  -1.250   0.4305   0.00523   0.00119  -0.1276   0.6699   0.5469
  -1.000   0.4600   0.00523   0.00120  -0.1279   0.6647   0.5547
  -0.750   0.4890   0.00528   0.00122  -0.1282   0.6573   0.5639
  -0.500   0.5183   0.00529   0.00125  -0.1284   0.6506   0.5758
  -0.250   0.5472   0.00536   0.00128  -0.1286   0.6428   0.5823
   0.000   0.5760   0.00540   0.00130  -0.1289   0.6331   0.5865
   0.250   0.6045   0.00546   0.00132  -0.1290   0.6213   0.5891
   0.500   0.6327   0.00554   0.00135  -0.1291   0.6073   0.5916
   0.750   0.6604   0.00565   0.00139  -0.1291   0.5899   0.5940
   1.000   0.6872   0.00581   0.00145  -0.1289   0.5653   0.5967
   1.250   0.7135   0.00601   0.00154  -0.1287   0.5371   0.5993
   1.500   0.7388   0.00629   0.00166  -0.1283   0.5030   0.6020
   1.750   0.7644   0.00652   0.00178  -0.1279   0.4765   0.6048
   2.250   0.8165   0.00700   0.00203  -0.1275   0.4260   0.6104
   2.500   0.8424   0.00723   0.00217  -0.1272   0.4029   0.6134
   2.750   0.8686   0.00744   0.00229  -0.1270   0.3829   0.6164
   3.000   0.8943   0.00765   0.00242  -0.1267   0.3655   0.6192
   3.250   0.9206   0.00786   0.00256  -0.1265   0.3471   0.6228
   3.500   0.9465   0.00805   0.00269  -0.1263   0.3332   0.6260
   3.750   0.9726   0.00824   0.00283  -0.1260   0.3192   0.6295
   4.000   0.9985   0.00844   0.00297  -0.1258   0.3054   0.6327
   4.250   1.0244   0.00861   0.00311  -0.1256   0.2944   0.6364
   4.500   1.0503   0.00881   0.00327  -0.1253   0.2825   0.6404
   5.000   1.1014   0.00921   0.00359  -0.1247   0.2616   0.6483
   5.250   1.1268   0.00942   0.00376  -0.1244   0.2510   0.6527
   5.500   1.1516   0.00963   0.00394  -0.1240   0.2418   0.6568
   5.750   1.1770   0.00982   0.00411  -0.1237   0.2339   0.6614
   6.000   1.2015   0.01003   0.00430  -0.1232   0.2254   0.6664
   6.250   1.2264   0.01023   0.00449  -0.1228   0.2188   0.6711
   6.750   1.2739   0.01066   0.00489  -0.1216   0.2042   0.6813
   7.000   1.2961   0.01088   0.00510  -0.1207   0.1978   0.6869
   7.500   1.3409   0.01133   0.00554  -0.1190   0.1863   0.6984
   8.000   1.3850   0.01183   0.00605  -0.1172   0.1754   0.7114
   8.250   1.4057   0.01215   0.00635  -0.1162   0.1681   0.7180
   8.500   1.4279   0.01240   0.00662  -0.1154   0.1637   0.7251
   8.750   1.4469   0.01276   0.00696  -0.1140   0.1566   0.7322
   9.000   1.4687   0.01302   0.00724  -0.1132   0.1525   0.7398
   9.250   1.4889   0.01336   0.00759  -0.1121   0.1477   0.7479
   9.500   1.5097   0.01366   0.00791  -0.1111   0.1438   0.7559
  10.000   1.5481   0.01442   0.00869  -0.1087   0.1330   0.7745
  10.500   1.5854   0.01525   0.00955  -0.1063   0.1234   0.7942
  11.000   1.6214   0.01618   0.01052  -0.1037   0.1140   0.8178
  11.250   1.6373   0.01675   0.01110  -0.1022   0.1083   0.8310
  11.500   1.6543   0.01725   0.01164  -0.1009   0.1043   0.8458
  11.750   1.6689   0.01790   0.01230  -0.0993   0.0981   0.8630
  12.000   1.6864   0.01836   0.01285  -0.0980   0.0967   0.8843
  12.500   1.7084   0.01959   0.01423  -0.0935   0.0870   1.0000
  12.750   1.7219   0.02040   0.01503  -0.0920   0.0828   1.0000
  13.000   1.7352   0.02128   0.01590  -0.0906   0.0775   1.0000
  13.250   1.7470   0.02224   0.01685  -0.0890   0.0722   1.0000
  13.500   1.7588   0.02327   0.01786  -0.0875   0.0681   1.0000
  13.750   1.7673   0.02448   0.01905  -0.0858   0.0619   1.0000
  14.000   1.7802   0.02546   0.02005  -0.0845   0.0592   1.0000
  14.250   1.7882   0.02680   0.02138  -0.0829   0.0542   1.0000
  14.500   1.7972   0.02811   0.02269  -0.0814   0.0501   1.0000
  14.750   1.8021   0.02977   0.02433  -0.0797   0.0443   1.0000
  15.000   1.8100   0.03124   0.02582  -0.0784   0.0409   1.0000
  15.250   1.8130   0.03318   0.02775  -0.0768   0.0355   1.0000
  15.500   1.8174   0.03503   0.02961  -0.0754   0.0319   1.0000
  15.750   1.8219   0.03690   0.03150  -0.0742   0.0292   1.0000
  16.000   1.8235   0.03918   0.03379  -0.0729   0.0252   1.0000
  16.250   1.8222   0.04170   0.03632  -0.0716   0.0212   1.0000
  16.500   1.8186   0.04457   0.03921  -0.0704   0.0173   1.0000
  16.750   1.8180   0.04718   0.04186  -0.0694   0.0150   1.0000
  17.000   1.8132   0.05040   0.04511  -0.0685   0.0117   1.0000
  17.250   1.8055   0.05406   0.04881  -0.0678   0.0085   1.0000
  17.500   1.7968   0.05794   0.05274  -0.0673   0.0063   1.0000
  17.750   1.7904   0.06168   0.05656  -0.0671   0.0053   1.0000
  18.000   1.7848   0.06547   0.06042  -0.0671   0.0047   1.0000
