  
       XFOIL         Version 6.99
  
 Calculated polar for: NACA 0009                                       
  
 1 1 Reynolds number fixed          Mach number fixed         
  
 xtrf =   1.000 (top)        1.000 (bottom)  
 Mach =   0.000     Re =     4.000 e 6     Ncrit =   9.000
  
   alpha    CL        CD       CDp       CM     Top_Xtr  Bot_Xtr
  ------ -------- --------- --------- -------- -------- --------
 -10.000  -1.0987   0.01114   0.00662  -0.0019   1.0000   0.0069
  -9.750  -1.0729   0.01086   0.00633  -0.0016   1.0000   0.0071
  -9.500  -1.0471   0.01060   0.00605  -0.0013   1.0000   0.0072
  -9.250  -1.0211   0.01035   0.00580  -0.0011   1.0000   0.0073
  -9.000  -0.9962   0.00993   0.00534  -0.0006   1.0000   0.0079
  -8.750  -0.9707   0.00962   0.00502  -0.0002   1.0000   0.0085
  -8.500  -0.9452   0.00936   0.00476   0.0002   1.0000   0.0089
  -8.250  -0.9196   0.00913   0.00452   0.0006   1.0000   0.0094
  -8.000  -0.8943   0.00892   0.00430   0.0011   1.0000   0.0097
  -7.750  -0.8691   0.00873   0.00412   0.0016   1.0000   0.0099
  -7.500  -0.8446   0.00847   0.00384   0.0022   1.0000   0.0108
  -7.250  -0.8202   0.00823   0.00361   0.0029   1.0000   0.0118
  -7.000  -0.7960   0.00803   0.00342   0.0037   1.0000   0.0125
  -6.750  -0.7657   0.00785   0.00324   0.0031   0.9995   0.0130
  -6.500  -0.7341   0.00763   0.00303   0.0022   0.9986   0.0143
  -6.250  -0.7025   0.00741   0.00283   0.0013   0.9975   0.0160
  -6.000  -0.6704   0.00724   0.00267   0.0003   0.9963   0.0170
  -5.750  -0.6382   0.00703   0.00248  -0.0007   0.9953   0.0197
  -5.500  -0.6058   0.00685   0.00232  -0.0018   0.9940   0.0218
  -5.250  -0.5767   0.00668   0.00217  -0.0021   0.9899   0.0251
  -5.000  -0.5460   0.00651   0.00203  -0.0027   0.9856   0.0281
  -4.750  -0.5170   0.00634   0.00189  -0.0029   0.9796   0.0335
  -4.500  -0.4895   0.00619   0.00176  -0.0028   0.9707   0.0392
  -4.250  -0.4630   0.00604   0.00164  -0.0024   0.9598   0.0453
  -4.000  -0.4366   0.00590   0.00151  -0.0020   0.9468   0.0549
  -3.750  -0.4101   0.00576   0.00139  -0.0017   0.9318   0.0673
  -3.500  -0.3835   0.00564   0.00128  -0.0013   0.9145   0.0806
  -3.250  -0.3567   0.00552   0.00117  -0.0010   0.8947   0.0986
  -3.000  -0.3297   0.00538   0.00107  -0.0008   0.8728   0.1211
  -2.750  -0.3027   0.00526   0.00096  -0.0006   0.8490   0.1483
  -2.500  -0.2755   0.00515   0.00088  -0.0005   0.8233   0.1751
  -2.250  -0.2482   0.00504   0.00080  -0.0003   0.7958   0.2066
  -2.000  -0.2208   0.00494   0.00073  -0.0003   0.7678   0.2384
  -1.750  -0.1934   0.00485   0.00067  -0.0002   0.7374   0.2729
  -1.500  -0.1659   0.00478   0.00061  -0.0001   0.7064   0.3073
  -1.250  -0.1383   0.00472   0.00057  -0.0001   0.6746   0.3420
  -1.000  -0.1107   0.00467   0.00054  -0.0001   0.6435   0.3753
  -0.750  -0.0831   0.00463   0.00051  -0.0000   0.6115   0.4115
  -0.500  -0.0553   0.00460   0.00049  -0.0000   0.5796   0.4446
  -0.250  -0.0277   0.00458   0.00048  -0.0000   0.5462   0.4795
   0.000   0.0000   0.00458   0.00048  -0.0000   0.5123   0.5131
   0.250   0.0277   0.00458   0.00048  -0.0000   0.4786   0.5471
   0.500   0.0555   0.00460   0.00049   0.0000   0.4452   0.5790
   0.750   0.0832   0.00463   0.00051   0.0000   0.4103   0.6111
   1.000   0.1108   0.00467   0.00054   0.0000   0.3759   0.6435
   1.250   0.1384   0.00472   0.00057   0.0001   0.3407   0.6755
   1.500   0.1660   0.00478   0.00062   0.0001   0.3060   0.7069
   1.750   0.1935   0.00486   0.00067   0.0002   0.2713   0.7373
   2.000   0.2209   0.00494   0.00073   0.0002   0.2386   0.7676
   2.250   0.2483   0.00504   0.00080   0.0003   0.2061   0.7958
   2.500   0.2756   0.00515   0.00088   0.0004   0.1754   0.8226
   2.750   0.3028   0.00526   0.00097   0.0006   0.1471   0.8489
   3.000   0.3298   0.00538   0.00107   0.0008   0.1210   0.8731
   3.250   0.3569   0.00551   0.00117   0.0010   0.1005   0.8951
   3.500   0.3836   0.00564   0.00128   0.0013   0.0805   0.9144
   3.750   0.4103   0.00576   0.00139   0.0016   0.0671   0.9318
   4.000   0.4367   0.00590   0.00151   0.0020   0.0549   0.9469
   4.250   0.4631   0.00605   0.00164   0.0024   0.0453   0.9597
   4.500   0.4897   0.00619   0.00176   0.0028   0.0391   0.9706
   4.750   0.5172   0.00633   0.00188   0.0029   0.0339   0.9796
   5.000   0.5461   0.00651   0.00203   0.0027   0.0281   0.9856
   5.250   0.5768   0.00668   0.00217   0.0020   0.0250   0.9900
   5.500   0.6059   0.00685   0.00232   0.0018   0.0218   0.9940
   6.000   0.6706   0.00724   0.00267  -0.0003   0.0170   0.9964
   6.250   0.7027   0.00741   0.00283  -0.0013   0.0160   0.9975
   6.500   0.7343   0.00764   0.00303  -0.0022   0.0143   0.9986
   6.750   0.7658   0.00786   0.00324  -0.0031   0.0130   0.9995
   7.000   0.7959   0.00803   0.00342  -0.0037   0.0125   1.0000
   7.250   0.8202   0.00823   0.00361  -0.0029   0.0118   1.0000
   7.500   0.8445   0.00846   0.00384  -0.0022   0.0108   1.0000
   7.750   0.8691   0.00873   0.00412  -0.0016   0.0099   1.0000
   8.000   0.8943   0.00892   0.00430  -0.0011   0.0097   1.0000
   8.250   0.9196   0.00913   0.00452  -0.0006   0.0094   1.0000
   8.500   0.9452   0.00936   0.00476  -0.0002   0.0089   1.0000
   8.750   0.9708   0.00962   0.00502   0.0002   0.0085   1.0000
   9.000   0.9962   0.00994   0.00534   0.0006   0.0079   1.0000
   9.250   1.0212   0.01036   0.00580   0.0010   0.0073   1.0000
   9.500   1.0472   0.01060   0.00605   0.0013   0.0072   1.0000
   9.750   1.0730   0.01086   0.00633   0.0016   0.0071   1.0000
  10.000   1.0988   0.01114   0.00662   0.0018   0.0070   1.0000
  10.250   1.1244   0.01143   0.00693   0.0021   0.0068   1.0000
  10.500   1.1499   0.01175   0.00726   0.0024   0.0066   1.0000
  10.750   1.1751   0.01209   0.00762   0.0027   0.0063   1.0000
  11.000   1.2000   0.01246   0.00800   0.0031   0.0061   1.0000
  11.250   1.2246   0.01289   0.00845   0.0035   0.0057   1.0000
  11.500   1.2480   0.01347   0.00909   0.0040   0.0053   1.0000
  11.750   1.2709   0.01410   0.00979   0.0046   0.0051   1.0000
  12.000   1.2953   0.01449   0.01021   0.0050   0.0051   1.0000
  12.250   1.3194   0.01489   0.01064   0.0054   0.0051   1.0000
  12.500   1.3432   0.01532   0.01110   0.0058   0.0050   1.0000
  12.750   1.3667   0.01575   0.01157   0.0063   0.0050   1.0000
  13.000   1.3898   0.01623   0.01207   0.0068   0.0049   1.0000
  13.250   1.4126   0.01672   0.01260   0.0073   0.0048   1.0000
  13.500   1.4349   0.01724   0.01316   0.0079   0.0047   1.0000
  13.750   1.4568   0.01778   0.01375   0.0085   0.0047   1.0000
  14.000   1.4782   0.01834   0.01435   0.0092   0.0046   1.0000
  14.250   1.4992   0.01893   0.01497   0.0099   0.0045   1.0000
  14.500   1.5195   0.01954   0.01563   0.0106   0.0044   1.0000
  14.750   1.5390   0.02020   0.01634   0.0115   0.0043   1.0000
  15.000   1.5577   0.02091   0.01709   0.0124   0.0042   1.0000
